ZINC000069019136
     RDKit          3D

 27 28  0  0  0  0  0  0  0  0999 V2000
   37.9500   33.0944   18.5996 O   0  0  0  0  0  0  0  0  0  0  0  0
   37.8247   33.7082   17.3149 C   0  0  0  0  0  0  0  0  0  0  0  0
   37.3062   35.1086   17.5415 C   0  0  0  0  0  0  0  0  0  0  0  0
   36.9927   35.7377   18.7385 C   0  0  0  0  0  0  0  0  0  0  0  0
   36.5627   37.0257   18.3938 C   0  0  0  0  0  0  0  0  0  0  0  0
   36.6063   37.2294   17.0815 N   0  0  0  0  0  0  0  0  0  0  0  0
   37.0963   36.0729   16.5781 N   0  0  0  0  0  0  0  0  0  0  0  0
   37.3214   36.0424   15.1510 C   0  0  0  0  0  0  0  0  0  0  0  0
   39.2210   33.7069   16.6645 C   0  0  0  0  0  0  0  0  0  0  0  0
   39.6659   32.2892   16.3375 C   0  0  0  0  0  0  0  0  0  0  0  0
   38.7108   31.6577   15.4885 O   0  0  0  0  0  0  0  0  0  0  0  0
   37.4416   31.5225   16.1287 C   0  0  0  0  0  0  0  0  0  0  0  0
   36.8527   32.8887   16.4586 C   0  0  0  0  0  0  0  0  0  0  0  0
   38.5644   33.6095   19.1455 H   0  0  0  0  0  0  0  0  0  0  0  0
   37.0622   35.3387   19.6876 H   0  0  0  0  0  0  0  0  0  0  0  0
   36.2492   37.7321   19.0777 H   0  0  0  0  0  0  0  0  0  0  0  0
   37.0395   36.9827   14.7253 H   0  0  0  0  0  0  0  0  0  0  0  0
   36.7337   35.2624   14.7138 H   0  0  0  0  0  0  0  0  0  0  0  0
   38.3577   35.8595   14.9573 H   0  0  0  0  0  0  0  0  0  0  0  0
   39.9232   34.1472   17.3412 H   0  0  0  0  0  0  0  0  0  0  0  0
   39.1753   34.2693   15.7553 H   0  0  0  0  0  0  0  0  0  0  0  0
   39.7575   31.7292   17.2447 H   0  0  0  0  0  0  0  0  0  0  0  0
   40.6097   32.3263   15.8348 H   0  0  0  0  0  0  0  0  0  0  0  0
   37.5631   30.9652   17.0340 H   0  0  0  0  0  0  0  0  0  0  0  0
   36.7751   31.0136   15.4641 H   0  0  0  0  0  0  0  0  0  0  0  0
   35.9376   32.7557   16.9969 H   0  0  0  0  0  0  0  0  0  0  0  0
   36.6739   33.4150   15.5443 H   0  0  0  0  0  0  0  0  0  0  0  0
  1  2  1  0
  1 14  1  0
  2  3  1  0
  2  9  1  0
  2 13  1  0
  3  4  2  0
  3  7  1  0
  4  5  1  0
  4 15  1  0
  5  6  2  0
  5 16  1  0
  6  7  1  0
  7  8  1  0
  8 17  1  0
  8 18  1  0
  8 19  1  0
  9 10  1  0
  9 20  1  0
  9 21  1  0
 10 11  1  0
 10 22  1  0
 10 23  1  0
 11 12  1  0
 12 13  1  0
 12 24  1  0
 12 25  1  0
 13 26  1  0
 13 27  1  0
M  END
>  <filename>  (1) 
ZINC000069019136

>  <docking_score>  (1) 
-6.1280000000000001

$$$$
ZINC000069019136
     RDKit          3D

 27 28  0  0  0  0  0  0  0  0999 V2000
   38.9555   33.8807   16.6276 O   0  0  0  0  0  0  0  0  0  0  0  0
   37.7249   33.8546   17.3541 C   0  0  0  0  0  0  0  0  0  0  0  0
   37.2919   35.2891   17.5440 C   0  0  0  0  0  0  0  0  0  0  0  0
   37.0781   35.9846   18.7261 C   0  0  0  0  0  0  0  0  0  0  0  0
   36.6956   37.2776   18.3466 C   0  0  0  0  0  0  0  0  0  0  0  0
   36.6762   37.4225   17.0259 N   0  0  0  0  0  0  0  0  0  0  0  0
   37.0778   36.2211   16.5503 N   0  0  0  0  0  0  0  0  0  0  0  0
   37.2210   36.1177   15.1161 C   0  0  0  0  0  0  0  0  0  0  0  0
   36.7117   33.0509   16.5173 C   0  0  0  0  0  0  0  0  0  0  0  0
   37.1105   31.5845   16.4440 C   0  0  0  0  0  0  0  0  0  0  0  0
   37.2283   31.0409   17.7564 O   0  0  0  0  0  0  0  0  0  0  0  0
   38.2625   31.6820   18.5038 C   0  0  0  0  0  0  0  0  0  0  0  0
   37.9512   33.1605   18.7019 C   0  0  0  0  0  0  0  0  0  0  0  0
   38.8175   34.3191   15.7734 H   0  0  0  0  0  0  0  0  0  0  0  0
   37.1801   35.6232   19.6874 H   0  0  0  0  0  0  0  0  0  0  0  0
   36.4572   38.0285   19.0134 H   0  0  0  0  0  0  0  0  0  0  0  0
   36.9640   37.0527   14.6636 H   0  0  0  0  0  0  0  0  0  0  0  0
   36.5708   35.3522   14.7469 H   0  0  0  0  0  0  0  0  0  0  0  0
   38.2341   35.8717   14.8756 H   0  0  0  0  0  0  0  0  0  0  0  0
   36.6768   33.4544   15.5269 H   0  0  0  0  0  0  0  0  0  0  0  0
   35.7511   33.1212   16.9834 H   0  0  0  0  0  0  0  0  0  0  0  0
   38.0505   31.4984   15.9400 H   0  0  0  0  0  0  0  0  0  0  0  0
   36.3584   31.0440   15.9082 H   0  0  0  0  0  0  0  0  0  0  0  0
   39.1880   31.5862   17.9752 H   0  0  0  0  0  0  0  0  0  0  0  0
   38.3314   31.2147   19.4639 H   0  0  0  0  0  0  0  0  0  0  0  0
   38.7726   33.6279   19.2036 H   0  0  0  0  0  0  0  0  0  0  0  0
   37.0592   33.2479   19.2865 H   0  0  0  0  0  0  0  0  0  0  0  0
  1  2  1  0
  1 14  1  0
  2  3  1  0
  2  9  1  0
  2 13  1  0
  3  4  2  0
  3  7  1  0
  4  5  1  0
  4 15  1  0
  5  6  2  0
  5 16  1  0
  6  7  1  0
  7  8  1  0
  8 17  1  0
  8 18  1  0
  8 19  1  0
  9 10  1  0
  9 20  1  0
  9 21  1  0
 10 11  1  0
 10 22  1  0
 10 23  1  0
 11 12  1  0
 12 13  1  0
 12 24  1  0
 12 25  1  0
 13 26  1  0
 13 27  1  0
M  END
>  <filename>  (2) 
ZINC000069019136

>  <docking_score>  (2) 
-6.1120000000000001

$$$$
ZINC000069019136
     RDKit          3D

 27 28  0  0  0  0  0  0  0  0999 V2000
   33.7232   28.0057   23.4684 O   0  0  0  0  0  0  0  0  0  0  0  0
   35.0607   27.5576   23.2380 C   0  0  0  0  0  0  0  0  0  0  0  0
   35.2963   26.3777   24.1511 C   0  0  0  0  0  0  0  0  0  0  0  0
   34.6284   25.1615   24.1919 C   0  0  0  0  0  0  0  0  0  0  0  0
   35.2393   24.4225   25.2131 C   0  0  0  0  0  0  0  0  0  0  0  0
   36.2354   25.0920   25.7833 N   0  0  0  0  0  0  0  0  0  0  0  0
   36.2860   26.2614   25.1044 N   0  0  0  0  0  0  0  0  0  0  0  0
   37.3475   27.1691   25.4748 C   0  0  0  0  0  0  0  0  0  0  0  0
   35.1675   27.1685   21.7514 C   0  0  0  0  0  0  0  0  0  0  0  0
   35.0467   28.3951   20.8595 C   0  0  0  0  0  0  0  0  0  0  0  0
   36.0427   29.3543   21.2052 O   0  0  0  0  0  0  0  0  0  0  0  0
   35.8752   29.8336   22.5398 C   0  0  0  0  0  0  0  0  0  0  0  0
   36.0342   28.7006   23.5464 C   0  0  0  0  0  0  0  0  0  0  0  0
   33.1030   27.2856   23.2746 H   0  0  0  0  0  0  0  0  0  0  0  0
   33.8430   24.8630   23.5927 H   0  0  0  0  0  0  0  0  0  0  0  0
   34.9500   23.4711   25.4898 H   0  0  0  0  0  0  0  0  0  0  0  0
   37.9276   26.7369   26.2633 H   0  0  0  0  0  0  0  0  0  0  0  0
   36.9258   28.0943   25.8081 H   0  0  0  0  0  0  0  0  0  0  0  0
   37.9756   27.3483   24.6272 H   0  0  0  0  0  0  0  0  0  0  0  0
   34.3826   26.4821   21.5116 H   0  0  0  0  0  0  0  0  0  0  0  0
   36.1230   26.7167   21.5840 H   0  0  0  0  0  0  0  0  0  0  0  0
   34.0775   28.8304   20.9863 H   0  0  0  0  0  0  0  0  0  0  0  0
   35.1839   28.1008   19.8399 H   0  0  0  0  0  0  0  0  0  0  0  0
   34.8977   30.2571   22.6401 H   0  0  0  0  0  0  0  0  0  0  0  0
   36.6237   30.5728   22.7349 H   0  0  0  0  0  0  0  0  0  0  0  0
   35.8364   29.0743   24.5294 H   0  0  0  0  0  0  0  0  0  0  0  0
   37.0343   28.3251   23.4849 H   0  0  0  0  0  0  0  0  0  0  0  0
  1  2  1  0
  1 14  1  0
  2  3  1  0
  2  9  1  0
  2 13  1  0
  3  4  2  0
  3  7  1  0
  4  5  1  0
  4 15  1  0
  5  6  2  0
  5 16  1  0
  6  7  1  0
  7  8  1  0
  8 17  1  0
  8 18  1  0
  8 19  1  0
  9 10  1  0
  9 20  1  0
  9 21  1  0
 10 11  1  0
 10 22  1  0
 10 23  1  0
 11 12  1  0
 12 13  1  0
 12 24  1  0
 12 25  1  0
 13 26  1  0
 13 27  1  0
M  END
>  <filename>  (3) 
ZINC000069019136

>  <docking_score>  (3) 
-5.9939999999999998

$$$$
ZINC000069019136
     RDKit          3D

 27 28  0  0  0  0  0  0  0  0999 V2000
   38.7311   31.0162   17.8258 O   0  0  0  0  0  0  0  0  0  0  0  0
   38.3048   32.1422   17.0556 C   0  0  0  0  0  0  0  0  0  0  0  0
   37.3669   32.9449   17.9260 C   0  0  0  0  0  0  0  0  0  0  0  0
   37.3546   33.0697   19.3085 C   0  0  0  0  0  0  0  0  0  0  0  0
   36.2902   33.9303   19.6065 C   0  0  0  0  0  0  0  0  0  0  0  0
   35.6669   34.3478   18.5098 N   0  0  0  0  0  0  0  0  0  0  0  0
   36.3534   33.7747   17.4944 N   0  0  0  0  0  0  0  0  0  0  0  0
   35.9279   34.1246   16.1585 C   0  0  0  0  0  0  0  0  0  0  0  0
   39.5638   32.9422   16.6714 C   0  0  0  0  0  0  0  0  0  0  0  0
   40.4304   32.1561   15.6989 C   0  0  0  0  0  0  0  0  0  0  0  0
   39.6773   31.8087   14.5397 O   0  0  0  0  0  0  0  0  0  0  0  0
   38.5825   30.9489   14.8579 C   0  0  0  0  0  0  0  0  0  0  0  0
   37.5983   31.6467   15.7888 C   0  0  0  0  0  0  0  0  0  0  0  0
   39.1790   31.3247   18.6289 H   0  0  0  0  0  0  0  0  0  0  0  0
   37.9979   32.6207   19.9790 H   0  0  0  0  0  0  0  0  0  0  0  0
   36.0221   34.2069   20.5640 H   0  0  0  0  0  0  0  0  0  0  0  0
   35.1009   34.8013   16.2133 H   0  0  0  0  0  0  0  0  0  0  0  0
   35.6307   33.2397   15.6355 H   0  0  0  0  0  0  0  0  0  0  0  0
   36.7371   34.5920   15.6374 H   0  0  0  0  0  0  0  0  0  0  0  0
   40.1296   33.1508   17.5553 H   0  0  0  0  0  0  0  0  0  0  0  0
   39.2594   33.8529   16.1991 H   0  0  0  0  0  0  0  0  0  0  0  0
   40.7768   31.2633   16.1762 H   0  0  0  0  0  0  0  0  0  0  0  0
   41.2636   32.7602   15.4063 H   0  0  0  0  0  0  0  0  0  0  0  0
   38.9560   30.0689   15.3385 H   0  0  0  0  0  0  0  0  0  0  0  0
   38.0741   30.6920   13.9522 H   0  0  0  0  0  0  0  0  0  0  0  0
   36.8270   30.9580   16.0640 H   0  0  0  0  0  0  0  0  0  0  0  0
   37.1807   32.4888   15.2775 H   0  0  0  0  0  0  0  0  0  0  0  0
  1  2  1  0
  1 14  1  0
  2  3  1  0
  2  9  1  0
  2 13  1  0
  3  4  2  0
  3  7  1  0
  4  5  1  0
  4 15  1  0
  5  6  2  0
  5 16  1  0
  6  7  1  0
  7  8  1  0
  8 17  1  0
  8 18  1  0
  8 19  1  0
  9 10  1  0
  9 20  1  0
  9 21  1  0
 10 11  1  0
 10 22  1  0
 10 23  1  0
 11 12  1  0
 12 13  1  0
 12 24  1  0
 12 25  1  0
 13 26  1  0
 13 27  1  0
M  END
>  <filename>  (4) 
ZINC000069019136

>  <docking_score>  (4) 
-5.9080000000000004

$$$$
ZINC000069019136
     RDKit          3D

 27 28  0  0  0  0  0  0  0  0999 V2000
   38.6827   33.0526   18.5322 O   0  0  0  0  0  0  0  0  0  0  0  0
   38.0821   33.3730   17.2755 C   0  0  0  0  0  0  0  0  0  0  0  0
   37.6149   34.8069   17.3603 C   0  0  0  0  0  0  0  0  0  0  0  0
   37.5083   35.7492   16.3466 C   0  0  0  0  0  0  0  0  0  0  0  0
   37.0218   36.9135   16.9547 C   0  0  0  0  0  0  0  0  0  0  0  0
   36.8114   36.7438   18.2557 N   0  0  0  0  0  0  0  0  0  0  0  0
   37.1375   35.4503   18.4828 N   0  0  0  0  0  0  0  0  0  0  0  0
   36.9287   34.9660   19.8282 C   0  0  0  0  0  0  0  0  0  0  0  0
   39.1553   33.1781   16.1878 C   0  0  0  0  0  0  0  0  0  0  0  0
   39.5189   31.7081   16.0416 C   0  0  0  0  0  0  0  0  0  0  0  0
   38.3544   30.9405   15.7478 O   0  0  0  0  0  0  0  0  0  0  0  0
   37.4024   30.9954   16.8107 C   0  0  0  0  0  0  0  0  0  0  0  0
   36.9077   32.4211   17.0220 C   0  0  0  0  0  0  0  0  0  0  0  0
   39.4269   33.6525   18.6973 H   0  0  0  0  0  0  0  0  0  0  0  0
   37.7399   35.6186   15.3494 H   0  0  0  0  0  0  0  0  0  0  0  0
   36.8476   37.7980   16.4522 H   0  0  0  0  0  0  0  0  0  0  0  0
   36.5420   35.7572   20.4360 H   0  0  0  0  0  0  0  0  0  0  0  0
   37.8590   34.6267   20.2336 H   0  0  0  0  0  0  0  0  0  0  0  0
   36.2303   34.1555   19.8111 H   0  0  0  0  0  0  0  0  0  0  0  0
   40.0312   33.7308   16.4568 H   0  0  0  0  0  0  0  0  0  0  0  0
   38.7645   33.5282   15.2552 H   0  0  0  0  0  0  0  0  0  0  0  0
   39.9517   31.3583   16.9555 H   0  0  0  0  0  0  0  0  0  0  0  0
   40.2203   31.5995   15.2408 H   0  0  0  0  0  0  0  0  0  0  0  0
   37.8624   30.6467   17.7117 H   0  0  0  0  0  0  0  0  0  0  0  0
   36.5673   30.3774   16.5550 H   0  0  0  0  0  0  0  0  0  0  0  0
   36.2502   32.4429   17.8659 H   0  0  0  0  0  0  0  0  0  0  0  0
   36.3924   32.7397   16.1400 H   0  0  0  0  0  0  0  0  0  0  0  0
  1  2  1  0
  1 14  1  0
  2  3  1  0
  2  9  1  0
  2 13  1  0
  3  4  2  0
  3  7  1  0
  4  5  1  0
  4 15  1  0
  5  6  2  0
  5 16  1  0
  6  7  1  0
  7  8  1  0
  8 17  1  0
  8 18  1  0
  8 19  1  0
  9 10  1  0
  9 20  1  0
  9 21  1  0
 10 11  1  0
 10 22  1  0
 10 23  1  0
 11 12  1  0
 12 13  1  0
 12 24  1  0
 12 25  1  0
 13 26  1  0
 13 27  1  0
M  END
>  <filename>  (5) 
ZINC000069019136

>  <docking_score>  (5) 
-5.8689999999999998

$$$$
ZINC000069019136
     RDKit          3D

 27 28  0  0  0  0  0  0  0  0999 V2000
   36.2663   33.0800   17.0892 O   0  0  0  0  0  0  0  0  0  0  0  0
   37.1799   33.3816   18.1462 C   0  0  0  0  0  0  0  0  0  0  0  0
   36.3873   33.3765   19.4320 C   0  0  0  0  0  0  0  0  0  0  0  0
   36.1420   32.3208   20.2992 C   0  0  0  0  0  0  0  0  0  0  0  0
   35.3629   32.8495   21.3365 C   0  0  0  0  0  0  0  0  0  0  0  0
   35.1307   34.1473   21.1715 N   0  0  0  0  0  0  0  0  0  0  0  0
   35.7901   34.4646   20.0333 N   0  0  0  0  0  0  0  0  0  0  0  0
   35.7678   35.8575   19.6496 C   0  0  0  0  0  0  0  0  0  0  0  0
   38.2722   32.2956   18.1362 C   0  0  0  0  0  0  0  0  0  0  0  0
   39.1313   32.4016   16.8850 C   0  0  0  0  0  0  0  0  0  0  0  0
   39.7084   33.7017   16.7936 O   0  0  0  0  0  0  0  0  0  0  0  0
   38.7112   34.7150   16.6603 C   0  0  0  0  0  0  0  0  0  0  0  0
   37.8110   34.7546   17.8891 C   0  0  0  0  0  0  0  0  0  0  0  0
   35.8641   32.2117   17.2473 H   0  0  0  0  0  0  0  0  0  0  0  0
   36.4669   31.3463   20.2002 H   0  0  0  0  0  0  0  0  0  0  0  0
   35.0112   32.2967   22.1339 H   0  0  0  0  0  0  0  0  0  0  0  0
   35.1999   36.4154   20.3646 H   0  0  0  0  0  0  0  0  0  0  0  0
   35.3184   35.9542   18.6833 H   0  0  0  0  0  0  0  0  0  0  0  0
   36.7687   36.2345   19.6167 H   0  0  0  0  0  0  0  0  0  0  0  0
   37.8083   31.3317   18.1622 H   0  0  0  0  0  0  0  0  0  0  0  0
   38.8981   32.4321   18.9934 H   0  0  0  0  0  0  0  0  0  0  0  0
   38.5235   32.2231   16.0227 H   0  0  0  0  0  0  0  0  0  0  0  0
   39.9145   31.6743   16.9362 H   0  0  0  0  0  0  0  0  0  0  0  0
   38.1155   34.5090   15.7956 H   0  0  0  0  0  0  0  0  0  0  0  0
   39.1973   35.6630   16.5609 H   0  0  0  0  0  0  0  0  0  0  0  0
   37.0344   35.4738   17.7321 H   0  0  0  0  0  0  0  0  0  0  0  0
   38.4024   35.0246   18.7390 H   0  0  0  0  0  0  0  0  0  0  0  0
  1  2  1  0
  1 14  1  0
  2  3  1  0
  2  9  1  0
  2 13  1  0
  3  4  2  0
  3  7  1  0
  4  5  1  0
  4 15  1  0
  5  6  2  0
  5 16  1  0
  6  7  1  0
  7  8  1  0
  8 17  1  0
  8 18  1  0
  8 19  1  0
  9 10  1  0
  9 20  1  0
  9 21  1  0
 10 11  1  0
 10 22  1  0
 10 23  1  0
 11 12  1  0
 12 13  1  0
 12 24  1  0
 12 25  1  0
 13 26  1  0
 13 27  1  0
M  END
>  <filename>  (6) 
ZINC000069019136

>  <docking_score>  (6) 
-5.8360000000000003

$$$$
ZINC000069019136
     RDKit          3D

 27 28  0  0  0  0  0  0  0  0999 V2000
   37.5621   32.1960   19.3330 O   0  0  0  0  0  0  0  0  0  0  0  0
   37.4502   32.5066   17.9424 C   0  0  0  0  0  0  0  0  0  0  0  0
   37.2133   33.9947   17.8384 C   0  0  0  0  0  0  0  0  0  0  0  0
   37.0271   34.7690   16.7014 C   0  0  0  0  0  0  0  0  0  0  0  0
   36.8442   36.0813   17.1568 C   0  0  0  0  0  0  0  0  0  0  0  0
   36.8902   36.1579   18.4825 N   0  0  0  0  0  0  0  0  0  0  0  0
   37.0753   34.8800   18.8867 N   0  0  0  0  0  0  0  0  0  0  0  0
   37.0889   34.6576   20.3145 C   0  0  0  0  0  0  0  0  0  0  0  0
   38.7681   32.0825   17.2672 C   0  0  0  0  0  0  0  0  0  0  0  0
   38.9220   30.5689   17.2805 C   0  0  0  0  0  0  0  0  0  0  0  0
   37.8050   29.9556   16.6417 O   0  0  0  0  0  0  0  0  0  0  0  0
   36.5862   30.2226   17.3361 C   0  0  0  0  0  0  0  0  0  0  0  0
   36.2821   31.7157   17.3428 C   0  0  0  0  0  0  0  0  0  0  0  0
   38.3003   32.6942   19.7173 H   0  0  0  0  0  0  0  0  0  0  0  0
   37.0240   34.4447   15.7217 H   0  0  0  0  0  0  0  0  0  0  0  0
   36.6919   36.8918   16.5363 H   0  0  0  0  0  0  0  0  0  0  0  0
   36.9512   35.5895   20.8220 H   0  0  0  0  0  0  0  0  0  0  0  0
   38.0278   34.2312   20.6002 H   0  0  0  0  0  0  0  0  0  0  0  0
   36.2977   33.9874   20.5787 H   0  0  0  0  0  0  0  0  0  0  0  0
   39.5891   32.5228   17.7936 H   0  0  0  0  0  0  0  0  0  0  0  0
   38.7543   32.4160   16.2505 H   0  0  0  0  0  0  0  0  0  0  0  0
   38.9812   30.2284   18.2931 H   0  0  0  0  0  0  0  0  0  0  0  0
   39.8148   30.3037   16.7537 H   0  0  0  0  0  0  0  0  0  0  0  0
   36.6750   29.8782   18.3453 H   0  0  0  0  0  0  0  0  0  0  0  0
   35.7888   29.7128   16.8370 H   0  0  0  0  0  0  0  0  0  0  0  0
   35.4028   31.8921   17.9265 H   0  0  0  0  0  0  0  0  0  0  0  0
   36.1308   32.0395   16.3342 H   0  0  0  0  0  0  0  0  0  0  0  0
  1  2  1  0
  1 14  1  0
  2  3  1  0
  2  9  1  0
  2 13  1  0
  3  4  2  0
  3  7  1  0
  4  5  1  0
  4 15  1  0
  5  6  2  0
  5 16  1  0
  6  7  1  0
  7  8  1  0
  8 17  1  0
  8 18  1  0
  8 19  1  0
  9 10  1  0
  9 20  1  0
  9 21  1  0
 10 11  1  0
 10 22  1  0
 10 23  1  0
 11 12  1  0
 12 13  1  0
 12 24  1  0
 12 25  1  0
 13 26  1  0
 13 27  1  0
M  END
>  <filename>  (7) 
ZINC000069019136

>  <docking_score>  (7) 
-5.8170000000000002

$$$$
ZINC000069019136
     RDKit          3D

 27 28  0  0  0  0  0  0  0  0999 V2000
   35.9093   32.7506   16.7484 O   0  0  0  0  0  0  0  0  0  0  0  0
   37.0118   33.3212   17.4566 C   0  0  0  0  0  0  0  0  0  0  0  0
   36.7220   34.7951   17.6147 C   0  0  0  0  0  0  0  0  0  0  0  0
   36.0611   35.4464   18.6471 C   0  0  0  0  0  0  0  0  0  0  0  0
   36.0678   36.8060   18.3095 C   0  0  0  0  0  0  0  0  0  0  0  0
   36.6952   37.0292   17.1597 N   0  0  0  0  0  0  0  0  0  0  0  0
   37.1220   35.8067   16.7670 N   0  0  0  0  0  0  0  0  0  0  0  0
   37.9142   35.7646   15.5593 C   0  0  0  0  0  0  0  0  0  0  0  0
   37.1097   32.6023   18.8154 C   0  0  0  0  0  0  0  0  0  0  0  0
   37.5209   31.1491   18.6320 C   0  0  0  0  0  0  0  0  0  0  0  0
   38.7582   31.0734   17.9283 O   0  0  0  0  0  0  0  0  0  0  0  0
   38.6505   31.6101   16.6095 C   0  0  0  0  0  0  0  0  0  0  0  0
   38.2977   33.0918   16.6545 C   0  0  0  0  0  0  0  0  0  0  0  0
   35.0927   32.8932   17.2522 H   0  0  0  0  0  0  0  0  0  0  0  0
   35.6494   35.0172   19.4905 H   0  0  0  0  0  0  0  0  0  0  0  0
   35.6367   37.5461   18.8853 H   0  0  0  0  0  0  0  0  0  0  0  0
   38.0207   36.7547   15.1677 H   0  0  0  0  0  0  0  0  0  0  0  0
   37.4278   35.1450   14.8350 H   0  0  0  0  0  0  0  0  0  0  0  0
   38.8809   35.3628   15.7806 H   0  0  0  0  0  0  0  0  0  0  0  0
   36.1565   32.6383   19.3002 H   0  0  0  0  0  0  0  0  0  0  0  0
   37.8502   33.0949   19.4104 H   0  0  0  0  0  0  0  0  0  0  0  0
   36.7654   30.6354   18.0750 H   0  0  0  0  0  0  0  0  0  0  0  0
   37.6375   30.6948   19.5937 H   0  0  0  0  0  0  0  0  0  0  0  0
   37.8856   31.0835   16.0780 H   0  0  0  0  0  0  0  0  0  0  0  0
   39.5930   31.4972   16.1157 H   0  0  0  0  0  0  0  0  0  0  0  0
   38.1567   33.4495   15.6559 H   0  0  0  0  0  0  0  0  0  0  0  0
   39.0973   33.6205   17.1301 H   0  0  0  0  0  0  0  0  0  0  0  0
  1  2  1  0
  1 14  1  0
  2  3  1  0
  2  9  1  0
  2 13  1  0
  3  4  2  0
  3  7  1  0
  4  5  1  0
  4 15  1  0
  5  6  2  0
  5 16  1  0
  6  7  1  0
  7  8  1  0
  8 17  1  0
  8 18  1  0
  8 19  1  0
  9 10  1  0
  9 20  1  0
  9 21  1  0
 10 11  1  0
 10 22  1  0
 10 23  1  0
 11 12  1  0
 12 13  1  0
 12 24  1  0
 12 25  1  0
 13 26  1  0
 13 27  1  0
M  END
>  <filename>  (8) 
ZINC000069019136

>  <docking_score>  (8) 
-5.8140000000000001

$$$$
ZINC000069019136
     RDKit          3D

 27 28  0  0  0  0  0  0  0  0999 V2000
   36.2451   32.8977   16.4698 O   0  0  0  0  0  0  0  0  0  0  0  0
   36.9706   33.4107   17.5892 C   0  0  0  0  0  0  0  0  0  0  0  0
   36.7442   34.9038   17.6175 C   0  0  0  0  0  0  0  0  0  0  0  0
   36.1739   35.6791   18.6178 C   0  0  0  0  0  0  0  0  0  0  0  0
   36.2078   36.9981   18.1473 C   0  0  0  0  0  0  0  0  0  0  0  0
   36.7685   37.0825   16.9457 N   0  0  0  0  0  0  0  0  0  0  0  0
   37.1256   35.8111   16.6513 N   0  0  0  0  0  0  0  0  0  0  0  0
   37.8375   35.6193   15.4086 C   0  0  0  0  0  0  0  0  0  0  0  0
   36.4220   32.7189   18.8514 C   0  0  0  0  0  0  0  0  0  0  0  0
   36.7699   31.2378   18.8530 C   0  0  0  0  0  0  0  0  0  0  0  0
   38.1811   31.0643   18.7527 O   0  0  0  0  0  0  0  0  0  0  0  0
   38.6910   31.5759   17.5210 C   0  0  0  0  0  0  0  0  0  0  0  0
   38.4574   33.0783   17.4201 C   0  0  0  0  0  0  0  0  0  0  0  0
   35.3032   33.1055   16.5721 H   0  0  0  0  0  0  0  0  0  0  0  0
   35.8015   35.3510   19.5226 H   0  0  0  0  0  0  0  0  0  0  0  0
   35.8408   37.8077   18.6716 H   0  0  0  0  0  0  0  0  0  0  0  0
   37.9542   36.5615   14.9151 H   0  0  0  0  0  0  0  0  0  0  0  0
   37.2844   34.9534   14.7796 H   0  0  0  0  0  0  0  0  0  0  0  0
   38.8013   35.2008   15.6106 H   0  0  0  0  0  0  0  0  0  0  0  0
   35.3580   32.8290   18.8768 H   0  0  0  0  0  0  0  0  0  0  0  0
   36.8654   33.1753   19.7117 H   0  0  0  0  0  0  0  0  0  0  0  0
   36.2951   30.7622   18.0203 H   0  0  0  0  0  0  0  0  0  0  0  0
   36.4279   30.7994   19.7672 H   0  0  0  0  0  0  0  0  0  0  0  0
   38.1958   31.0886   16.7071 H   0  0  0  0  0  0  0  0  0  0  0  0
   39.7439   31.3895   17.4822 H   0  0  0  0  0  0  0  0  0  0  0  0
   38.7865   33.4210   16.4614 H   0  0  0  0  0  0  0  0  0  0  0  0
   39.0079   33.5641   18.1985 H   0  0  0  0  0  0  0  0  0  0  0  0
  1  2  1  0
  1 14  1  0
  2  3  1  0
  2  9  1  0
  2 13  1  0
  3  4  2  0
  3  7  1  0
  4  5  1  0
  4 15  1  0
  5  6  2  0
  5 16  1  0
  6  7  1  0
  7  8  1  0
  8 17  1  0
  8 18  1  0
  8 19  1  0
  9 10  1  0
  9 20  1  0
  9 21  1  0
 10 11  1  0
 10 22  1  0
 10 23  1  0
 11 12  1  0
 12 13  1  0
 12 24  1  0
 12 25  1  0
 13 26  1  0
 13 27  1  0
M  END
>  <filename>  (9) 
ZINC000069019136

>  <docking_score>  (9) 
-5.8079999999999998

$$$$
ZINC000069019136
     RDKit          3D

 27 28  0  0  0  0  0  0  0  0999 V2000
   36.2866   33.2736   19.2461 O   0  0  0  0  0  0  0  0  0  0  0  0
   36.8863   33.6030   17.9913 C   0  0  0  0  0  0  0  0  0  0  0  0
   36.6987   35.0877   17.7865 C   0  0  0  0  0  0  0  0  0  0  0  0
   36.0746   36.0088   18.6165 C   0  0  0  0  0  0  0  0  0  0  0  0
   36.1799   37.2448   17.9654 C   0  0  0  0  0  0  0  0  0  0  0  0
   36.8328   37.1449   16.8125 N   0  0  0  0  0  0  0  0  0  0  0  0
   37.1770   35.8387   16.7333 N   0  0  0  0  0  0  0  0  0  0  0  0
   37.9764   35.4571   15.5916 C   0  0  0  0  0  0  0  0  0  0  0  0
   38.3746   33.2145   18.0748 C   0  0  0  0  0  0  0  0  0  0  0  0
   38.5372   31.7042   18.1591 C   0  0  0  0  0  0  0  0  0  0  0  0
   37.9123   31.0793   17.0408 O   0  0  0  0  0  0  0  0  0  0  0  0
   36.5036   31.3122   17.0234 C   0  0  0  0  0  0  0  0  0  0  0  0
   36.2018   32.7990   16.8802 C   0  0  0  0  0  0  0  0  0  0  0  0
   36.7165   33.7801   19.9529 H   0  0  0  0  0  0  0  0  0  0  0  0
   35.6255   35.8217   19.5266 H   0  0  0  0  0  0  0  0  0  0  0  0
   35.7958   38.1277   18.3370 H   0  0  0  0  0  0  0  0  0  0  0  0
   38.1556   36.3157   14.9788 H   0  0  0  0  0  0  0  0  0  0  0  0
   37.4551   34.7156   15.0230 H   0  0  0  0  0  0  0  0  0  0  0  0
   38.9103   35.0576   15.9277 H   0  0  0  0  0  0  0  0  0  0  0  0
   38.8053   33.6626   18.9458 H   0  0  0  0  0  0  0  0  0  0  0  0
   38.8690   33.5630   17.1921 H   0  0  0  0  0  0  0  0  0  0  0  0
   38.0840   31.3496   19.0612 H   0  0  0  0  0  0  0  0  0  0  0  0
   39.5800   31.4642   18.1559 H   0  0  0  0  0  0  0  0  0  0  0  0
   36.0777   30.9544   17.9375 H   0  0  0  0  0  0  0  0  0  0  0  0
   36.0810   30.7948   16.1876 H   0  0  0  0  0  0  0  0  0  0  0  0
   35.1441   32.9496   16.9390 H   0  0  0  0  0  0  0  0  0  0  0  0
   36.5739   33.1350   15.9349 H   0  0  0  0  0  0  0  0  0  0  0  0
  1  2  1  0
  1 14  1  0
  2  3  1  0
  2  9  1  0
  2 13  1  0
  3  4  2  0
  3  7  1  0
  4  5  1  0
  4 15  1  0
  5  6  2  0
  5 16  1  0
  6  7  1  0
  7  8  1  0
  8 17  1  0
  8 18  1  0
  8 19  1  0
  9 10  1  0
  9 20  1  0
  9 21  1  0
 10 11  1  0
 10 22  1  0
 10 23  1  0
 11 12  1  0
 12 13  1  0
 12 24  1  0
 12 25  1  0
 13 26  1  0
 13 27  1  0
M  END
>  <filename>  (10) 
ZINC000069019136

>  <docking_score>  (10) 
-5.7930000000000001

$$$$
ZINC000069019136
     RDKit          3D

 27 28  0  0  0  0  0  0  0  0999 V2000
   36.2774   32.4663   17.9794 O   0  0  0  0  0  0  0  0  0  0  0  0
   37.4747   31.7337   18.2483 C   0  0  0  0  0  0  0  0  0  0  0  0
   38.2504   31.6618   16.9543 C   0  0  0  0  0  0  0  0  0  0  0  0
   39.2091   32.5381   16.4642 C   0  0  0  0  0  0  0  0  0  0  0  0
   39.6173   32.0103   15.2324 C   0  0  0  0  0  0  0  0  0  0  0  0
   38.9904   30.8742   14.9465 N   0  0  0  0  0  0  0  0  0  0  0  0
   38.1924   30.6522   16.0165 N   0  0  0  0  0  0  0  0  0  0  0  0
   37.4367   29.4207   16.0049 C   0  0  0  0  0  0  0  0  0  0  0  0
   38.2459   32.4951   19.3430 C   0  0  0  0  0  0  0  0  0  0  0  0
   37.4973   32.4478   20.6667 C   0  0  0  0  0  0  0  0  0  0  0  0
   37.2697   31.0952   21.0546 O   0  0  0  0  0  0  0  0  0  0  0  0
   36.4368   30.4095   20.1192 C   0  0  0  0  0  0  0  0  0  0  0  0
   37.1055   30.3339   18.7520 C   0  0  0  0  0  0  0  0  0  0  0  0
   36.5058   33.3533   17.6602 H   0  0  0  0  0  0  0  0  0  0  0  0
   39.5510   33.4011   16.9149 H   0  0  0  0  0  0  0  0  0  0  0  0
   40.3211   32.4515   14.6200 H   0  0  0  0  0  0  0  0  0  0  0  0
   37.6472   28.8814   15.1049 H   0  0  0  0  0  0  0  0  0  0  0  0
   36.3910   29.6434   16.0510 H   0  0  0  0  0  0  0  0  0  0  0  0
   37.7120   28.8252   16.8501 H   0  0  0  0  0  0  0  0  0  0  0  0
   38.3637   33.5155   19.0433 H   0  0  0  0  0  0  0  0  0  0  0  0
   39.2013   32.0314   19.4737 H   0  0  0  0  0  0  0  0  0  0  0  0
   36.5574   32.9478   20.5594 H   0  0  0  0  0  0  0  0  0  0  0  0
   38.0849   32.9327   21.4180 H   0  0  0  0  0  0  0  0  0  0  0  0
   35.5082   30.9331   20.0269 H   0  0  0  0  0  0  0  0  0  0  0  0
   36.2699   29.4141   20.4745 H   0  0  0  0  0  0  0  0  0  0  0  0
   36.4322   29.8773   18.0569 H   0  0  0  0  0  0  0  0  0  0  0  0
   38.0005   29.7539   18.8395 H   0  0  0  0  0  0  0  0  0  0  0  0
  1  2  1  0
  1 14  1  0
  2  3  1  0
  2  9  1  0
  2 13  1  0
  3  4  2  0
  3  7  1  0
  4  5  1  0
  4 15  1  0
  5  6  2  0
  5 16  1  0
  6  7  1  0
  7  8  1  0
  8 17  1  0
  8 18  1  0
  8 19  1  0
  9 10  1  0
  9 20  1  0
  9 21  1  0
 10 11  1  0
 10 22  1  0
 10 23  1  0
 11 12  1  0
 12 13  1  0
 12 24  1  0
 12 25  1  0
 13 26  1  0
 13 27  1  0
M  END
>  <filename>  (11) 
ZINC000069019136

>  <docking_score>  (11) 
-5.7610000000000001

$$$$
ZINC000069019136
     RDKit          3D

 27 28  0  0  0  0  0  0  0  0999 V2000
   38.4050   32.1641   18.7585 O   0  0  0  0  0  0  0  0  0  0  0  0
   37.6457   32.4588   17.5840 C   0  0  0  0  0  0  0  0  0  0  0  0
   37.1904   33.8944   17.6992 C   0  0  0  0  0  0  0  0  0  0  0  0
   36.4090   34.4835   18.6838 C   0  0  0  0  0  0  0  0  0  0  0  0
   36.2870   35.8312   18.3214 C   0  0  0  0  0  0  0  0  0  0  0  0
   36.9471   36.1061   17.2015 N   0  0  0  0  0  0  0  0  0  0  0  0
   37.5236   34.9323   16.8544 N   0  0  0  0  0  0  0  0  0  0  0  0
   38.3790   34.9608   15.6901 C   0  0  0  0  0  0  0  0  0  0  0  0
   38.5690   32.2408   16.3705 C   0  0  0  0  0  0  0  0  0  0  0  0
   38.9137   30.7678   16.2086 C   0  0  0  0  0  0  0  0  0  0  0  0
   37.7225   29.9950   16.0844 O   0  0  0  0  0  0  0  0  0  0  0  0
   36.9165   30.0725   17.2605 C   0  0  0  0  0  0  0  0  0  0  0  0
   36.4503   31.5026   17.5048 C   0  0  0  0  0  0  0  0  0  0  0  0
   39.1630   32.7669   18.8132 H   0  0  0  0  0  0  0  0  0  0  0  0
   36.0017   34.0231   19.5126 H   0  0  0  0  0  0  0  0  0  0  0  0
   35.7484   36.5275   18.8601 H   0  0  0  0  0  0  0  0  0  0  0  0
   38.3987   35.9513   15.2861 H   0  0  0  0  0  0  0  0  0  0  0  0
   38.0017   34.2825   14.9535 H   0  0  0  0  0  0  0  0  0  0  0  0
   39.3703   34.6694   15.9686 H   0  0  0  0  0  0  0  0  0  0  0  0
   39.4713   32.7984   16.5121 H   0  0  0  0  0  0  0  0  0  0  0  0
   38.0598   32.5717   15.4895 H   0  0  0  0  0  0  0  0  0  0  0  0
   39.4622   30.4368   17.0657 H   0  0  0  0  0  0  0  0  0  0  0  0
   39.5054   30.6423   15.3260 H   0  0  0  0  0  0  0  0  0  0  0  0
   37.4902   29.7422   18.1012 H   0  0  0  0  0  0  0  0  0  0  0  0
   36.0565   29.4498   17.1281 H   0  0  0  0  0  0  0  0  0  0  0  0
   35.9078   31.5422   18.4263 H   0  0  0  0  0  0  0  0  0  0  0  0
   35.8243   31.8031   16.6907 H   0  0  0  0  0  0  0  0  0  0  0  0
  1  2  1  0
  1 14  1  0
  2  3  1  0
  2  9  1  0
  2 13  1  0
  3  4  2  0
  3  7  1  0
  4  5  1  0
  4 15  1  0
  5  6  2  0
  5 16  1  0
  6  7  1  0
  7  8  1  0
  8 17  1  0
  8 18  1  0
  8 19  1  0
  9 10  1  0
  9 20  1  0
  9 21  1  0
 10 11  1  0
 10 22  1  0
 10 23  1  0
 11 12  1  0
 12 13  1  0
 12 24  1  0
 12 25  1  0
 13 26  1  0
 13 27  1  0
M  END
>  <filename>  (12) 
ZINC000069019136

>  <docking_score>  (12) 
-5.75

$$$$
ZINC000069019136
     RDKit          3D

 27 28  0  0  0  0  0  0  0  0999 V2000
   37.1552   31.4054   19.1426 O   0  0  0  0  0  0  0  0  0  0  0  0
   37.0710   32.3729   18.0939 C   0  0  0  0  0  0  0  0  0  0  0  0
   38.0034   31.9185   16.9959 C   0  0  0  0  0  0  0  0  0  0  0  0
   39.1032   32.5750   16.4607 C   0  0  0  0  0  0  0  0  0  0  0  0
   39.6187   31.7207   15.4774 C   0  0  0  0  0  0  0  0  0  0  0  0
   38.9246   30.5913   15.3869 N   0  0  0  0  0  0  0  0  0  0  0  0
   37.9710   30.7058   16.3400 N   0  0  0  0  0  0  0  0  0  0  0  0
   37.1031   29.5638   16.5152 C   0  0  0  0  0  0  0  0  0  0  0  0
   35.6046   32.4189   17.6249 C   0  0  0  0  0  0  0  0  0  0  0  0
   34.7057   32.9936   18.7095 C   0  0  0  0  0  0  0  0  0  0  0  0
   35.1583   34.2917   19.0862 O   0  0  0  0  0  0  0  0  0  0  0  0
   36.4672   34.2511   19.6555 C   0  0  0  0  0  0  0  0  0  0  0  0
   37.4842   33.7441   18.6403 C   0  0  0  0  0  0  0  0  0  0  0  0
   36.8946   30.5355   18.8017 H   0  0  0  0  0  0  0  0  0  0  0  0
   39.4665   33.5021   16.7316 H   0  0  0  0  0  0  0  0  0  0  0  0
   40.4399   31.9422   14.8928 H   0  0  0  0  0  0  0  0  0  0  0  0
   37.3778   28.7972   15.8211 H   0  0  0  0  0  0  0  0  0  0  0  0
   36.0888   29.8565   16.3404 H   0  0  0  0  0  0  0  0  0  0  0  0
   37.1999   29.1921   17.5138 H   0  0  0  0  0  0  0  0  0  0  0  0
   35.2804   31.4265   17.3905 H   0  0  0  0  0  0  0  0  0  0  0  0
   35.5415   33.0463   16.7604 H   0  0  0  0  0  0  0  0  0  0  0  0
   34.7269   32.3500   19.5640 H   0  0  0  0  0  0  0  0  0  0  0  0
   33.7069   33.0674   18.3330 H   0  0  0  0  0  0  0  0  0  0  0  0
   36.4611   33.5971   20.5024 H   0  0  0  0  0  0  0  0  0  0  0  0
   36.7430   35.2417   19.9513 H   0  0  0  0  0  0  0  0  0  0  0  0
   38.4402   33.6595   19.1135 H   0  0  0  0  0  0  0  0  0  0  0  0
   37.5315   34.4373   17.8265 H   0  0  0  0  0  0  0  0  0  0  0  0
  1  2  1  0
  1 14  1  0
  2  3  1  0
  2  9  1  0
  2 13  1  0
  3  4  2  0
  3  7  1  0
  4  5  1  0
  4 15  1  0
  5  6  2  0
  5 16  1  0
  6  7  1  0
  7  8  1  0
  8 17  1  0
  8 18  1  0
  8 19  1  0
  9 10  1  0
  9 20  1  0
  9 21  1  0
 10 11  1  0
 10 22  1  0
 10 23  1  0
 11 12  1  0
 12 13  1  0
 12 24  1  0
 12 25  1  0
 13 26  1  0
 13 27  1  0
M  END
>  <filename>  (13) 
ZINC000069019136

>  <docking_score>  (13) 
-5.7400000000000002

$$$$
ZINC000069019136
     RDKit          3D

 27 28  0  0  0  0  0  0  0  0999 V2000
   35.8461   34.2552   19.0800 O   0  0  0  0  0  0  0  0  0  0  0  0
   36.2027   33.2946   18.0835 C   0  0  0  0  0  0  0  0  0  0  0  0
   34.9171   32.6891   17.5717 C   0  0  0  0  0  0  0  0  0  0  0  0
   33.7144   32.5058   18.2402 C   0  0  0  0  0  0  0  0  0  0  0  0
   32.8479   31.9101   17.3148 C   0  0  0  0  0  0  0  0  0  0  0  0
   33.4290   31.7327   16.1330 N   0  0  0  0  0  0  0  0  0  0  0  0
   34.6715   32.2449   16.2893 N   0  0  0  0  0  0  0  0  0  0  0  0
   35.5124   32.2502   15.1142 C   0  0  0  0  0  0  0  0  0  0  0  0
   36.9709   34.0411   16.9766 C   0  0  0  0  0  0  0  0  0  0  0  0
   38.3156   34.5358   17.4884 C   0  0  0  0  0  0  0  0  0  0  0  0
   39.0826   33.4439   17.9897 O   0  0  0  0  0  0  0  0  0  0  0  0
   38.4510   32.8240   19.1103 C   0  0  0  0  0  0  0  0  0  0  0  0
   37.1059   32.2282   18.7132 C   0  0  0  0  0  0  0  0  0  0  0  0
   35.2743   34.9326   18.6864 H   0  0  0  0  0  0  0  0  0  0  0  0
   33.5023   32.7570   19.2184 H   0  0  0  0  0  0  0  0  0  0  0  0
   31.8742   31.6409   17.5256 H   0  0  0  0  0  0  0  0  0  0  0  0
   34.9794   31.8202   14.2921 H   0  0  0  0  0  0  0  0  0  0  0  0
   36.3959   31.6775   15.3051 H   0  0  0  0  0  0  0  0  0  0  0  0
   35.7849   33.2570   14.8750 H   0  0  0  0  0  0  0  0  0  0  0  0
   36.3903   34.8788   16.6510 H   0  0  0  0  0  0  0  0  0  0  0  0
   37.1415   33.3663   16.1640 H   0  0  0  0  0  0  0  0  0  0  0  0
   38.1559   35.2455   18.2731 H   0  0  0  0  0  0  0  0  0  0  0  0
   38.8483   34.9963   16.6828 H   0  0  0  0  0  0  0  0  0  0  0  0
   38.2981   33.5559   19.8758 H   0  0  0  0  0  0  0  0  0  0  0  0
   39.0822   32.0372   19.4674 H   0  0  0  0  0  0  0  0  0  0  0  0
   36.6266   31.8324   19.5842 H   0  0  0  0  0  0  0  0  0  0  0  0
   37.2728   31.4528   17.9950 H   0  0  0  0  0  0  0  0  0  0  0  0
  1  2  1  0
  1 14  1  0
  2  3  1  0
  2  9  1  0
  2 13  1  0
  3  4  2  0
  3  7  1  0
  4  5  1  0
  4 15  1  0
  5  6  2  0
  5 16  1  0
  6  7  1  0
  7  8  1  0
  8 17  1  0
  8 18  1  0
  8 19  1  0
  9 10  1  0
  9 20  1  0
  9 21  1  0
 10 11  1  0
 10 22  1  0
 10 23  1  0
 11 12  1  0
 12 13  1  0
 12 24  1  0
 12 25  1  0
 13 26  1  0
 13 27  1  0
M  END
>  <filename>  (14) 
ZINC000069019136

>  <docking_score>  (14) 
-5.7320000000000002

$$$$
ZINC000069019136
     RDKit          3D

 27 28  0  0  0  0  0  0  0  0999 V2000
   36.3953   33.3708   19.2804 O   0  0  0  0  0  0  0  0  0  0  0  0
   36.8830   33.5707   17.9519 C   0  0  0  0  0  0  0  0  0  0  0  0
   36.7674   35.0471   17.6548 C   0  0  0  0  0  0  0  0  0  0  0  0
   37.0998   35.7299   16.4928 C   0  0  0  0  0  0  0  0  0  0  0  0
   36.7943   37.0750   16.7375 C   0  0  0  0  0  0  0  0  0  0  0  0
   36.2884   37.2564   17.9527 N   0  0  0  0  0  0  0  0  0  0  0  0
   36.2402   36.0135   18.4855 N   0  0  0  0  0  0  0  0  0  0  0  0
   35.6511   35.9050   19.8006 C   0  0  0  0  0  0  0  0  0  0  0  0
   38.3452   33.0872   17.9192 C   0  0  0  0  0  0  0  0  0  0  0  0
   38.4221   31.5787   18.1011 C   0  0  0  0  0  0  0  0  0  0  0  0
   37.6488   30.9228   17.0993 O   0  0  0  0  0  0  0  0  0  0  0  0
   36.2628   31.2505   17.2016 C   0  0  0  0  0  0  0  0  0  0  0  0
   36.0403   32.7411   16.9766 C   0  0  0  0  0  0  0  0  0  0  0  0
   36.9256   33.8939   19.9017 H   0  0  0  0  0  0  0  0  0  0  0  0
   37.4915   35.3289   15.6264 H   0  0  0  0  0  0  0  0  0  0  0  0
   36.9443   37.8346   16.0552 H   0  0  0  0  0  0  0  0  0  0  0  0
   35.3506   36.8750   20.1379 H   0  0  0  0  0  0  0  0  0  0  0  0
   36.3696   35.4976   20.4808 H   0  0  0  0  0  0  0  0  0  0  0  0
   34.7969   35.2622   19.7569 H   0  0  0  0  0  0  0  0  0  0  0  0
   38.8894   33.5635   18.7078 H   0  0  0  0  0  0  0  0  0  0  0  0
   38.7675   33.3391   16.9688 H   0  0  0  0  0  0  0  0  0  0  0  0
   38.0423   31.3192   19.0672 H   0  0  0  0  0  0  0  0  0  0  0  0
   39.4422   31.2678   18.0145 H   0  0  0  0  0  0  0  0  0  0  0  0
   35.9113   30.9868   18.1773 H   0  0  0  0  0  0  0  0  0  0  0  0
   35.7260   30.7070   16.4524 H   0  0  0  0  0  0  0  0  0  0  0  0
   35.0054   32.9680   17.1266 H   0  0  0  0  0  0  0  0  0  0  0  0
   36.3340   32.9847   15.9769 H   0  0  0  0  0  0  0  0  0  0  0  0
  1  2  1  0
  1 14  1  0
  2  3  1  0
  2  9  1  0
  2 13  1  0
  3  4  2  0
  3  7  1  0
  4  5  1  0
  4 15  1  0
  5  6  2  0
  5 16  1  0
  6  7  1  0
  7  8  1  0
  8 17  1  0
  8 18  1  0
  8 19  1  0
  9 10  1  0
  9 20  1  0
  9 21  1  0
 10 11  1  0
 10 22  1  0
 10 23  1  0
 11 12  1  0
 12 13  1  0
 12 24  1  0
 12 25  1  0
 13 26  1  0
 13 27  1  0
M  END
>  <filename>  (15) 
ZINC000069019136

>  <docking_score>  (15) 
-5.7240000000000002

$$$$
ZINC000069019136
     RDKit          3D

 27 28  0  0  0  0  0  0  0  0999 V2000
   35.8267   33.1296   18.9121 O   0  0  0  0  0  0  0  0  0  0  0  0
   36.8722   33.4036   17.9769 C   0  0  0  0  0  0  0  0  0  0  0  0
   36.8173   34.8817   17.6714 C   0  0  0  0  0  0  0  0  0  0  0  0
   37.1662   35.5424   16.5014 C   0  0  0  0  0  0  0  0  0  0  0  0
   36.9219   36.9008   16.7405 C   0  0  0  0  0  0  0  0  0  0  0  0
   36.4376   37.1115   17.9597 N   0  0  0  0  0  0  0  0  0  0  0  0
   36.3415   35.8752   18.5013 N   0  0  0  0  0  0  0  0  0  0  0  0
   35.7626   35.8004   19.8231 C   0  0  0  0  0  0  0  0  0  0  0  0
   38.2025   32.9994   18.6401 C   0  0  0  0  0  0  0  0  0  0  0  0
   38.2800   31.4913   18.8257 C   0  0  0  0  0  0  0  0  0  0  0  0
   38.1181   30.8328   17.5720 O   0  0  0  0  0  0  0  0  0  0  0  0
   36.8316   31.0830   17.0052 C   0  0  0  0  0  0  0  0  0  0  0  0
   36.6478   32.5671   16.7122 C   0  0  0  0  0  0  0  0  0  0  0  0
   35.9642   33.6567   19.7146 H   0  0  0  0  0  0  0  0  0  0  0  0
   37.5308   35.1194   15.6335 H   0  0  0  0  0  0  0  0  0  0  0  0
   37.0972   37.6491   16.0515 H   0  0  0  0  0  0  0  0  0  0  0  0
   35.5079   36.7845   20.1573 H   0  0  0  0  0  0  0  0  0  0  0  0
   36.4701   35.3664   20.4984 H   0  0  0  0  0  0  0  0  0  0  0  0
   34.8809   35.1949   19.7927 H   0  0  0  0  0  0  0  0  0  0  0  0
   38.2759   33.4744   19.5961 H   0  0  0  0  0  0  0  0  0  0  0  0
   39.0079   33.3079   18.0069 H   0  0  0  0  0  0  0  0  0  0  0  0
   37.5049   31.1769   19.4930 H   0  0  0  0  0  0  0  0  0  0  0  0
   39.2367   31.2380   19.2326 H   0  0  0  0  0  0  0  0  0  0  0  0
   36.0771   30.7655   17.6942 H   0  0  0  0  0  0  0  0  0  0  0  0
   36.7503   30.5399   16.0869 H   0  0  0  0  0  0  0  0  0  0  0  0
   35.6535   32.7334   16.3536 H   0  0  0  0  0  0  0  0  0  0  0  0
   37.3643   32.8624   15.9743 H   0  0  0  0  0  0  0  0  0  0  0  0
  1  2  1  0
  1 14  1  0
  2  3  1  0
  2  9  1  0
  2 13  1  0
  3  4  2  0
  3  7  1  0
  4  5  1  0
  4 15  1  0
  5  6  2  0
  5 16  1  0
  6  7  1  0
  7  8  1  0
  8 17  1  0
  8 18  1  0
  8 19  1  0
  9 10  1  0
  9 20  1  0
  9 21  1  0
 10 11  1  0
 10 22  1  0
 10 23  1  0
 11 12  1  0
 12 13  1  0
 12 24  1  0
 12 25  1  0
 13 26  1  0
 13 27  1  0
M  END
>  <filename>  (16) 
ZINC000069019136

>  <docking_score>  (16) 
-5.7220000000000004

$$$$
ZINC000069019136
     RDKit          3D

 27 28  0  0  0  0  0  0  0  0999 V2000
   35.7918   32.6317   17.8540 O   0  0  0  0  0  0  0  0  0  0  0  0
   37.0828   33.2443   17.8262 C   0  0  0  0  0  0  0  0  0  0  0  0
   36.8644   34.7388   17.8346 C   0  0  0  0  0  0  0  0  0  0  0  0
   36.2365   35.5215   18.7938 C   0  0  0  0  0  0  0  0  0  0  0  0
   36.3086   36.8383   18.3216 C   0  0  0  0  0  0  0  0  0  0  0  0
   36.9451   36.9147   17.1578 N   0  0  0  0  0  0  0  0  0  0  0  0
   37.3121   35.6399   16.8914 N   0  0  0  0  0  0  0  0  0  0  0  0
   38.1004   35.4388   15.6971 C   0  0  0  0  0  0  0  0  0  0  0  0
   37.8483   32.7649   19.0740 C   0  0  0  0  0  0  0  0  0  0  0  0
   38.1598   31.2786   18.9817 C   0  0  0  0  0  0  0  0  0  0  0  0
   38.9016   31.0046   17.7957 O   0  0  0  0  0  0  0  0  0  0  0  0
   38.1521   31.3123   16.6199 C   0  0  0  0  0  0  0  0  0  0  0  0
   37.8236   32.7992   16.5603 C   0  0  0  0  0  0  0  0  0  0  0  0
   35.3188   32.9104   18.6536 H   0  0  0  0  0  0  0  0  0  0  0  0
   35.8053   35.1993   19.6742 H   0  0  0  0  0  0  0  0  0  0  0  0
   35.9141   37.6524   18.8186 H   0  0  0  0  0  0  0  0  0  0  0  0
   38.2542   36.3784   15.2088 H   0  0  0  0  0  0  0  0  0  0  0  0
   37.5842   34.7738   15.0367 H   0  0  0  0  0  0  0  0  0  0  0  0
   39.0468   35.0153   15.9615 H   0  0  0  0  0  0  0  0  0  0  0  0
   37.2497   32.9442   19.9426 H   0  0  0  0  0  0  0  0  0  0  0  0
   38.7702   33.3043   19.1379 H   0  0  0  0  0  0  0  0  0  0  0  0
   37.2438   30.7259   18.9615 H   0  0  0  0  0  0  0  0  0  0  0  0
   38.7414   30.9899   19.8322 H   0  0  0  0  0  0  0  0  0  0  0  0
   37.2406   30.7519   16.6284 H   0  0  0  0  0  0  0  0  0  0  0  0
   38.7391   31.0565   15.7627 H   0  0  0  0  0  0  0  0  0  0  0  0
   37.2055   32.9880   15.7075 H   0  0  0  0  0  0  0  0  0  0  0  0
   38.7382   33.3498   16.4868 H   0  0  0  0  0  0  0  0  0  0  0  0
  1  2  1  0
  1 14  1  0
  2  3  1  0
  2  9  1  0
  2 13  1  0
  3  4  2  0
  3  7  1  0
  4  5  1  0
  4 15  1  0
  5  6  2  0
  5 16  1  0
  6  7  1  0
  7  8  1  0
  8 17  1  0
  8 18  1  0
  8 19  1  0
  9 10  1  0
  9 20  1  0
  9 21  1  0
 10 11  1  0
 10 22  1  0
 10 23  1  0
 11 12  1  0
 12 13  1  0
 12 24  1  0
 12 25  1  0
 13 26  1  0
 13 27  1  0
M  END
>  <filename>  (17) 
ZINC000069019136

>  <docking_score>  (17) 
-5.7169999999999996

$$$$
ZINC000069019136
     RDKit          3D

 27 28  0  0  0  0  0  0  0  0999 V2000
   36.5019   30.1162   17.7005 O   0  0  0  0  0  0  0  0  0  0  0  0
   37.1373   31.2584   18.2788 C   0  0  0  0  0  0  0  0  0  0  0  0
   38.1613   31.7480   17.2822 C   0  0  0  0  0  0  0  0  0  0  0  0
   38.4736   31.2337   16.0313 C   0  0  0  0  0  0  0  0  0  0  0  0
   39.4846   32.0575   15.5195 C   0  0  0  0  0  0  0  0  0  0  0  0
   39.7974   33.0395   16.3581 N   0  0  0  0  0  0  0  0  0  0  0  0
   38.9607   32.8649   17.4071 N   0  0  0  0  0  0  0  0  0  0  0  0
   39.0346   33.8572   18.4549 C   0  0  0  0  0  0  0  0  0  0  0  0
   36.0432   32.3091   18.5468 C   0  0  0  0  0  0  0  0  0  0  0  0
   35.0960   31.8392   19.6408 C   0  0  0  0  0  0  0  0  0  0  0  0
   35.8247   31.5512   20.8315 O   0  0  0  0  0  0  0  0  0  0  0  0
   36.7496   30.4803   20.6400 C   0  0  0  0  0  0  0  0  0  0  0  0
   37.7996   30.8506   19.5996 C   0  0  0  0  0  0  0  0  0  0  0  0
   36.0811   30.3692   16.8640 H   0  0  0  0  0  0  0  0  0  0  0  0
   38.0483   30.4131   15.5723 H   0  0  0  0  0  0  0  0  0  0  0  0
   39.9331   31.9180   14.6005 H   0  0  0  0  0  0  0  0  0  0  0  0
   39.7793   34.5841   18.2058 H   0  0  0  0  0  0  0  0  0  0  0  0
   39.2941   33.3826   19.3781 H   0  0  0  0  0  0  0  0  0  0  0  0
   38.0850   34.3399   18.5565 H   0  0  0  0  0  0  0  0  0  0  0  0
   35.4865   32.4724   17.6477 H   0  0  0  0  0  0  0  0  0  0  0  0
   36.5114   33.2166   18.8663 H   0  0  0  0  0  0  0  0  0  0  0  0
   34.5891   30.9554   19.3140 H   0  0  0  0  0  0  0  0  0  0  0  0
   34.3857   32.6131   19.8443 H   0  0  0  0  0  0  0  0  0  0  0  0
   36.2179   29.6130   20.3083 H   0  0  0  0  0  0  0  0  0  0  0  0
   37.2424   30.2829   21.5690 H   0  0  0  0  0  0  0  0  0  0  0  0
   38.4356   30.0075   19.4274 H   0  0  0  0  0  0  0  0  0  0  0  0
   38.3696   31.6783   19.9671 H   0  0  0  0  0  0  0  0  0  0  0  0
  1  2  1  0
  1 14  1  0
  2  3  1  0
  2  9  1  0
  2 13  1  0
  3  4  2  0
  3  7  1  0
  4  5  1  0
  4 15  1  0
  5  6  2  0
  5 16  1  0
  6  7  1  0
  7  8  1  0
  8 17  1  0
  8 18  1  0
  8 19  1  0
  9 10  1  0
  9 20  1  0
  9 21  1  0
 10 11  1  0
 10 22  1  0
 10 23  1  0
 11 12  1  0
 12 13  1  0
 12 24  1  0
 12 25  1  0
 13 26  1  0
 13 27  1  0
M  END
>  <filename>  (18) 
ZINC000069019136

>  <docking_score>  (18) 
-5.7060000000000004

$$$$
ZINC000069019136
     RDKit          3D

 27 28  0  0  0  0  0  0  0  0999 V2000
   36.7370   32.0785   16.5008 O   0  0  0  0  0  0  0  0  0  0  0  0
   37.6317   32.0264   17.6142 C   0  0  0  0  0  0  0  0  0  0  0  0
   37.0021   31.1217   18.6468 C   0  0  0  0  0  0  0  0  0  0  0  0
   37.1171   31.1664   20.0295 C   0  0  0  0  0  0  0  0  0  0  0  0
   36.3335   30.1112   20.5139 C   0  0  0  0  0  0  0  0  0  0  0  0
   35.7410   29.4408   19.5317 N   0  0  0  0  0  0  0  0  0  0  0  0
   36.1226   30.0871   18.4058 N   0  0  0  0  0  0  0  0  0  0  0  0
   35.5532   29.6046   17.1685 C   0  0  0  0  0  0  0  0  0  0  0  0
   38.9745   31.4722   17.1018 C   0  0  0  0  0  0  0  0  0  0  0  0
   39.6433   32.4587   16.1562 C   0  0  0  0  0  0  0  0  0  0  0  0
   39.8279   33.7141   16.8056 O   0  0  0  0  0  0  0  0  0  0  0  0
   38.5820   34.3124   17.1644 C   0  0  0  0  0  0  0  0  0  0  0  0
   37.8315   33.4426   18.1656 C   0  0  0  0  0  0  0  0  0  0  0  0
   36.6072   31.1843   16.1481 H   0  0  0  0  0  0  0  0  0  0  0  0
   37.6670   31.8392   20.5862 H   0  0  0  0  0  0  0  0  0  0  0  0
   36.2289   29.8818   21.5148 H   0  0  0  0  0  0  0  0  0  0  0  0
   34.9059   28.7772   17.3723 H   0  0  0  0  0  0  0  0  0  0  0  0
   36.3384   29.2902   16.5131 H   0  0  0  0  0  0  0  0  0  0  0  0
   34.9934   30.3891   16.7036 H   0  0  0  0  0  0  0  0  0  0  0  0
   38.7990   30.5531   16.5827 H   0  0  0  0  0  0  0  0  0  0  0  0
   39.6199   31.3105   17.9399 H   0  0  0  0  0  0  0  0  0  0  0  0
   39.0263   32.5946   15.2927 H   0  0  0  0  0  0  0  0  0  0  0  0
   40.5977   32.0720   15.8654 H   0  0  0  0  0  0  0  0  0  0  0  0
   37.9838   34.4309   16.2851 H   0  0  0  0  0  0  0  0  0  0  0  0
   38.7758   35.2636   17.6145 H   0  0  0  0  0  0  0  0  0  0  0  0
   36.8753   33.8803   18.3630 H   0  0  0  0  0  0  0  0  0  0  0  0
   38.4065   33.3820   19.0660 H   0  0  0  0  0  0  0  0  0  0  0  0
  1  2  1  0
  1 14  1  0
  2  3  1  0
  2  9  1  0
  2 13  1  0
  3  4  2  0
  3  7  1  0
  4  5  1  0
  4 15  1  0
  5  6  2  0
  5 16  1  0
  6  7  1  0
  7  8  1  0
  8 17  1  0
  8 18  1  0
  8 19  1  0
  9 10  1  0
  9 20  1  0
  9 21  1  0
 10 11  1  0
 10 22  1  0
 10 23  1  0
 11 12  1  0
 12 13  1  0
 12 24  1  0
 12 25  1  0
 13 26  1  0
 13 27  1  0
M  END
>  <filename>  (19) 
ZINC000069019136

>  <docking_score>  (19) 
-5.7009999999999996

$$$$
ZINC000069019136
     RDKit          3D

 27 28  0  0  0  0  0  0  0  0999 V2000
   36.0924   31.1949   18.1867 O   0  0  0  0  0  0  0  0  0  0  0  0
   37.0228   32.2722   18.0578 C   0  0  0  0  0  0  0  0  0  0  0  0
   38.0048   31.8829   16.9782 C   0  0  0  0  0  0  0  0  0  0  0  0
   39.0990   32.5908   16.5003 C   0  0  0  0  0  0  0  0  0  0  0  0
   39.6742   31.7849   15.5091 C   0  0  0  0  0  0  0  0  0  0  0  0
   39.0211   30.6373   15.3612 N   0  0  0  0  0  0  0  0  0  0  0  0
   38.0338   30.6911   16.2849 N   0  0  0  0  0  0  0  0  0  0  0  0
   37.1988   29.5168   16.3960 C   0  0  0  0  0  0  0  0  0  0  0  0
   36.2207   33.5325   17.6825 C   0  0  0  0  0  0  0  0  0  0  0  0
   35.3289   33.9712   18.8344 C   0  0  0  0  0  0  0  0  0  0  0  0
   36.1122   34.1984   20.0035 O   0  0  0  0  0  0  0  0  0  0  0  0
   36.7548   33.0040   20.4502 C   0  0  0  0  0  0  0  0  0  0  0  0
   37.7311   32.4885   19.3998 C   0  0  0  0  0  0  0  0  0  0  0  0
   35.6414   31.0540   17.3397 H   0  0  0  0  0  0  0  0  0  0  0  0
   39.4225   33.5201   16.8113 H   0  0  0  0  0  0  0  0  0  0  0  0
   40.5061   32.0510   14.9594 H   0  0  0  0  0  0  0  0  0  0  0  0
   37.5211   28.7817   15.6884 H   0  0  0  0  0  0  0  0  0  0  0  0
   36.1816   29.7822   16.1965 H   0  0  0  0  0  0  0  0  0  0  0  0
   37.2755   29.1170   17.3856 H   0  0  0  0  0  0  0  0  0  0  0  0
   35.6114   33.3189   16.8293 H   0  0  0  0  0  0  0  0  0  0  0  0
   36.9082   34.3224   17.4622 H   0  0  0  0  0  0  0  0  0  0  0  0
   34.6083   33.2061   19.0348 H   0  0  0  0  0  0  0  0  0  0  0  0
   34.8315   34.8795   18.5651 H   0  0  0  0  0  0  0  0  0  0  0  0
   36.0131   32.2556   20.6369 H   0  0  0  0  0  0  0  0  0  0  0  0
   37.2984   33.2218   21.3457 H   0  0  0  0  0  0  0  0  0  0  0  0
   38.1451   31.5593   19.7317 H   0  0  0  0  0  0  0  0  0  0  0  0
   38.5055   33.2146   19.2657 H   0  0  0  0  0  0  0  0  0  0  0  0
  1  2  1  0
  1 14  1  0
  2  3  1  0
  2  9  1  0
  2 13  1  0
  3  4  2  0
  3  7  1  0
  4  5  1  0
  4 15  1  0
  5  6  2  0
  5 16  1  0
  6  7  1  0
  7  8  1  0
  8 17  1  0
  8 18  1  0
  8 19  1  0
  9 10  1  0
  9 20  1  0
  9 21  1  0
 10 11  1  0
 10 22  1  0
 10 23  1  0
 11 12  1  0
 12 13  1  0
 12 24  1  0
 12 25  1  0
 13 26  1  0
 13 27  1  0
M  END
>  <filename>  (20) 
ZINC000069019136

>  <docking_score>  (20) 
-5.7000000000000002

$$$$
